ELEM h
ELEM D/2.014/
ELEM O
ELEM N
SPEC ! SPEC is equivalent to SPECIES
H2 O2
H O OH HO2 N2 N NO
END
THERMO ALL
OH 121286O 1H 1 G 0300.00 5000.00 1000.00 1
 0.02882730E+02 0.10139743E-02-0.02276877E-05 0.02174683E-09-0.05126305E-14 2
 0.03886888E+05 0.05595712E+02 0.03637266E+02 0.01850910E-02-0.16761646E-05 3
 0.02387202E-07-0.08431442E-11 0.03606781E+05 0.13588605E+01 4
END
REACTIONS CAL/MOLE
H2 + O2 = 2OH 1.7E13 0 47780. ! Ref. 21
! H2 + O2 = OH + H 1.7E13 0 47780. ! same as previous reaction,
! commented to prevent a duplication error
H + O2 + M = HO2 + M 2.0E15 0.000 -870.
! H + O2 + M = HO2 2.0E15 0.000 -870.
! H + O2 = HO2 + M 2.0E15 0.000 -870.
OH+ + H + E = H2O 1.E19 0 0.0
O + HV = O(*) 1.3A5 0 0
0.5H2 + 0.5O2 = OH ! example of real coefficients
END ! END statement is optional;
