ELEM h
ELEM D/2.014/
ELEM O
ELEM N
SPEC ! SPEC is equivalent to SPECIES
H2 O2
H O OH HO2 N2 N NO
END
THERMO ALL
OH 121286O 1H 1 G 0300.00 5000.00 1000.00 1
 0.02882730E+02 0.10139743E-02-0.02276877E-05 0.02174683E-09-0.05126305E-14 2
 0.03886888E+05 0.05595712E+02 0.03637266E+02 0.01850910E-02-0.16761646E-05 3
 0.02387202E-07-0.08431442E-11 0.03606781E+05 0.13588605E+01 4
END
