ELEMENTS
O H N
END

SPECIES
H O N H2O OH O2 H2 N2 HO2 HNO2 NO NO2
END

THERMO ALL
H                 L 7/88H   1               G   200.000  3500.000  1000.000    1
 2.50000001E+00-2.30842973E-11 1.61561948E-14-4.73515235E-18 4.98197357E-22    2
 2.54736599E+04-4.46682914E-01 2.50000000E+00 7.05332819E-13-1.99591964E-15    3
 2.30081632E-18-9.27732332E-22 2.54736599E+04-4.46682853E-01                   4
O                 L 1/90O   1               G   200.000  3500.000  1000.000    1
 2.56942078E+00-8.59741137E-05 4.19484589E-08-1.00177799E-11 1.22833691E-15    2
 2.92175791E+04 4.78433864E+00 3.16826710E+00-3.27931884E-03 6.64306396E-06    3
-6.12806624E-09 2.11265971E-12 2.91222592E+04 2.05193346E+00                   4
N                 L 6/88N   1               G   200.000  6000.000  1000.000    1
 0.24159429E+01 0.17489065E-03-0.11902369E-06 0.30226245E-10-0.20360982E-14    2
 0.56133773E+05 0.46496096E+01 0.25000000E+01 0.00000000E+00 0.00000000E+00    3
 0.00000000E+00 0.00000000E+00 0.56104637E+05 0.41939087E+01                   4
H2O               L 8/89H   2O   1          G   200.000  3500.000  1000.000    1
 3.03399249E+00 2.17691804E-03-1.64072518E-07-9.70419870E-11 1.68200992E-14    2
-3.00042971E+04 4.96677010E+00 4.19864056E+00-2.03643410E-03 6.52040211E-06    3
-5.48797062E-09 1.77197817E-12-3.02937267E+04-8.49032208E-01                   4
OH                RUS 78O   1H   1          G   200.000  3500.000  1000.000    1
 3.09288767E+00 5.48429716E-04 1.26505228E-07-8.79461556E-11 1.17412376E-14    2
 3.85865700E+03 4.47669610E+00 3.99201543E+00-2.40131752E-03 4.61793841E-06    3
-3.88113333E-09 1.36411470E-12 3.61508056E+03-1.03925458E-01                   4
O2                TPIS89O   2               G   200.000  3500.000  1000.000    1
 3.28253784E+00 1.48308754E-03-7.57966669E-07 2.09470555E-10-2.16717794E-14    2
-1.08845772E+03 5.45323129E+00 3.78245636E+00-2.99673416E-03 9.84730201E-06    3
-9.68129509E-09 3.24372837E-12-1.06394356E+03 3.65767573E+00                   4
H2                TPIS78H   2               G   200.000  3500.000  1000.000    1
 3.33727920E+00-4.94024731E-05 4.99456778E-07-1.79566394E-10 2.00255376E-14    2
-9.50158922E+02-3.20502331E+00 2.34433112E+00 7.98052075E-03-1.94781510E-05    3
 2.01572094E-08-7.37611761E-12-9.17935173E+02 6.83010238E-01                   4
N2                121286N   2               G   300.000  5000.000  1000.000    1
 0.02926640E+02 0.14879768E-02-0.05684760E-05 0.10097038E-09-0.06753351E-13    2
-0.09227977E+04 0.05980528E+02 0.03298677E+02 0.14082404E-02-0.03963222E-04    3
 0.05641515E-07-0.02444854E-10-0.10208999E+04 0.03950372E+02                   4
HO2               L 5/89H   1O   2          G   200.000  3500.000  1000.000    1
 4.01721090E+00 2.23982013E-03-6.33658150E-07 1.14246370E-10-1.07908535E-14    2
 1.11856713E+02 3.78510215E+00 4.30179801E+00-4.74912051E-03 2.11582891E-05    3
-2.42763894E-08 9.29225124E-12 2.94808040E+02 3.71666245E+00                   4
HNO2 equil  ATcT  T 9/11H  1.N  1.O  2.   0.G   200.000  6000.000 1000.        1
 5.79182717E+00 3.65162554E-03-1.29293390E-06 2.06892796E-10-1.23154749E-14    2
-1.15953895E+04-4.05538852E+00 3.21415915E+00 8.12778066E-03 1.65998916E-06    3
-9.52814708E-09 4.87131424E-12-1.07830727E+04 9.82200056E+00-9.46538040E+03    4
NO                RUS 78N   1O   1          G   200.000  6000.000  1000.000    1
 0.32606056E+01 0.11911043E-02-0.42917048E-06 0.69457669E-10-0.40336099E-14    2
 0.99209746E+04 0.63693027E+01 0.42184763E+01-0.46389760E-02 0.11041022E-04    3
-0.93361354E-08 0.28035770E-11 0.98446230E+04 0.22808464E+01                   4
NO2               L 7/88N   1O   2          G   200.000  6000.000  1000.000    1
 0.48847542E+01 0.21723956E-02-0.82806906E-06 0.15747510E-09-0.10510895E-13    2
 0.23164983E+04-0.11741695E+00 0.39440312E+01-0.15854290E-02 0.16657812E-04    3
-0.20475426E-07 0.78350564E-11 0.28966179E+04 0.63119917E+01                   4
END

REACTIONS KELVINS
HNO2+N2=NO+OH+N2  0.50000E+18 -1.00000E+00  0.25000E+05
			REV / 8.00000E+15  0.00000E+00 -0.10000E+04 /
NO2+N2=NO+O+N2    0.11000E+17  0.00000E+00  0.32712E+05
			REV / 1.10000E+15  0.00000E+00 -0.94100E+03 /
H2+N2=H+H+N2      0.55000E+19 -1.00000E+00  0.51987E+05
			REV / 1.80000E+18 -1.00000E+00  0.00000E+00 /
O2+N2=O+O+N2      0.72000E+19 -1.00000E+00  0.59340E+05
			REV / 4.00000E+17 -1.00000E+00  0.00000E+00 /
H2O+N2=OH+H+N2    0.52000E+22 -1.50000E+00  0.59386E+05
			REV / 4.40000E+20 -1.50000E+00  0.00000E+00 /
OH+N2=O+H+N2      0.85000E+19 -1.00000E+00  0.50830E+05
			REV / 7.10000E+18 -1.00000E+00  0.00000E+00 /
HO2+N2=H+O2+N2    0.17000E+17  0.00000E+00  0.23100E+05
			REV / 1.10000E+16  0.00000E+00 -0.44000E+03 /
H2O+O=OH+OH       0.58000E+14  0.00000E+00  0.90590E+04
			REV / 5.30000E+12  0.00000E+00  0.50300E+03 /
H2O+H=OH+H2       0.84000E+14  0.00000E+00  0.10116E+05
			REV / 2.00000E+13  0.00000E+00  0.26000E+04 /
O2+H=OH+O         0.22000E+15  0.00000E+00  0.84550E+04
			REV / 1.50000E+13  0.00000E+00  0.00000E+00 /
H2+O=OH+H         0.75000E+14  0.00000E+00  0.55860E+04 
			REV / 3.00000E+13  0.00000E+00  0.44290E+04 /
H2+O2=OH+OH       0.17000E+14  0.00000E+00  0.24232E+05
			REV / 5.70000E+11  0.00000E+00  0.14922E+05 /
H2+O2=H+HO2       0.19000E+14  0.00000E+00  0.24100E+05
			REV / 1.30000E+13  0.00000E+00  0.00000E+00 /
OH+OH=H+HO2       0.17000E+12  0.50000E+00  0.21137E+05
			REV / 6.00000E+13  0.00000E+00  0.00000E+00 /
H2O+O=H+HO2       0.58000E+12  0.50000E+00  0.28686E+05
			REV / 3.00000E+13  0.00000E+00  0.00000E+00 /
OH+O2=O+HO2       0.37000E+12  0.64000E+00  0.27840E+05
			REV / 1.00000E+13  0.00000E+00  0.00000E+00 /
H2O+O2=OH+HO2     0.20000E+12  0.50000E+00  0.36296E+05
			REV / 1.20000E+13  0.00000E+00  0.00000E+00 /
H2O+OH=H2+HO2     0.12000E+13  0.21000E+00  0.39815E+05 
			REV / 1.70000E+13  0.00000E+00  0.12582E+05 /
O+N2=N+NO         0.50000E+14  0.00000E+00  0.37940E+05 
			REV / 1.10000E+13  0.00000E+00  0.00000E+00 /
H+NO=N+OH         0.17000E+15  0.00000E+00  0.24500E+05
			REV / 4.50000E+13  0.00000E+00  0.00000E+00 /
O+NO=N+O2        0.24000E+12  0.50000E+00  0.19200E+05
			REV / 1.00000E+12  0.50000E+00  0.31200E+04 /
NO+OH=H+NO2       0.20000E+12  0.50000E+00  0.15500E+05
			REV / 3.50000E+14  0.00000E+00  0.74000E+03 /
NO+O2=O+NO2       0.10000E+13  0.00000E+00  0.22800E+05
			REV / 1.00000E+13  0.00000E+00  0.30200E+00 /
NO2+H2=H+HNO2     0.24000E+14  0.00000E+00  0.14500E+05
			REV / 5.00000E+11  0.50000E+00  0.15000E+04 /
NO2+OH=NO+HO2     0.10000E+12  0.50000E+00  0.60000E+04
			REV / 3.00000E+12  0.50000E+00  0.12000E+04 /
END