ELEMENTS
H O N
END

SPECIES
H O H2O OH O2 H2 N2
END

THERMO ALL
   300.000  1000.000  5000.000
H                 L 7/88H   1               G   200.000  3500.000  1000.000    1
 2.50000001E+00-2.30842973E-11 1.61561948E-14-4.73515235E-18 4.98197357E-22    2
 2.54736599E+04-4.46682914E-01 2.50000000E+00 7.05332819E-13-1.99591964E-15    3
 2.30081632E-18-9.27732332E-22 2.54736599E+04-4.46682853E-01                   4
O                 L 1/90O   1               G   200.000  3500.000  1000.000    1
 2.56942078E+00-8.59741137E-05 4.19484589E-08-1.00177799E-11 1.22833691E-15    2
 2.92175791E+04 4.78433864E+00 3.16826710E+00-3.27931884E-03 6.64306396E-06    3
-6.12806624E-09 2.11265971E-12 2.91222592E+04 2.05193346E+00                   4
H2O               L 8/89H   2O   1          G   200.000  3500.000  1000.000    1
 3.03399249E+00 2.17691804E-03-1.64072518E-07-9.70419870E-11 1.68200992E-14    2
-3.00042971E+04 4.96677010E+00 4.19864056E+00-2.03643410E-03 6.52040211E-06    3
-5.48797062E-09 1.77197817E-12-3.02937267E+04-8.49032208E-01                   4
OH                RUS 78O   1H   1          G   200.000  3500.000  1000.000    1
 3.09288767E+00 5.48429716E-04 1.26505228E-07-8.79461556E-11 1.17412376E-14    2
 3.85865700E+03 4.47669610E+00 3.99201543E+00-2.40131752E-03 4.61793841E-06    3
-3.88113333E-09 1.36411470E-12 3.61508056E+03-1.03925458E-01                   4
O2                TPIS89O   2               G   200.000  3500.000  1000.000    1
 3.28253784E+00 1.48308754E-03-7.57966669E-07 2.09470555E-10-2.16717794E-14    2
-1.08845772E+03 5.45323129E+00 3.78245636E+00-2.99673416E-03 9.84730201E-06    3
-9.68129509E-09 3.24372837E-12-1.06394356E+03 3.65767573E+00                   4
H2                TPIS78H   2               G   200.000  3500.000  1000.000    1
 3.33727920E+00-4.94024731E-05 4.99456778E-07-1.79566394E-10 2.00255376E-14    2
-9.50158922E+02-3.20502331E+00 2.34433112E+00 7.98052075E-03-1.94781510E-05    3
 2.01572094E-08-7.37611761E-12-9.17935173E+02 6.83010238E-01                   4
N2                121286N   2               G   300.000  5000.000  1000.000    1
 0.02926640E+02 0.14879768E-02-0.05684760E-05 0.10097038E-09-0.06753351E-13    2
-0.09227977E+04 0.05980528E+02 0.03298677E+02 0.14082404E-02-0.03963222E-04    3
 0.05641515E-07-0.02444854E-10-0.10208999E+04 0.03950372E+02                   4
END


REACTIONS KELVINS
H2+O2=OH+OH        0.17000E+14  0.00000E+00  0.24000E+05 
			  REV /0.39217E+14  0.00000E+00 -0.54697E+04/
H+O2=OH+O          0.12000E+17 -0.91000E+00  0.50650E+04 
			  REV /0.10819E+18 -0.91000E+00 -0.34057E+04/
OH+H2=H2O+H        0.22000E+14  0.00000E+00  0.25500E+04 
			  REV /0.30723E+16 -0.10000E+01 -0.99512E+04/
O+H2=OH+H          0.50600E+05  0.26700E+01  0.31900E+04 
		      REV /0.10789E+07  0.26700E+01 -0.17809E+05/
OH+OH=O+H2O        0.63000E+13  0.00000E+00  0.54000E+03 
		      REV /0.34384E+16 -0.10000E+01  0.90378E+04/
H+OH+N2=H2O+N2     0.22100E+23 -0.20000E+01  0.00000E+00 
		      REV /0.81442E+31 -0.20000E+01  0.60077E+05/
H+H+N2=H2+N2       0.73000E+18 -0.10000E+01  0.00000E+00 
			  REV /0.16053E+27  0.00000E+00  0.72579E+05/
END